
###########################################################################
#
#                 Cambridge Crystallographic Data Centre
#                                CCDC 
# 
###########################################################################
#
#  This CIF contains data generated directly from an entry in the Cambridge 
#  Structural Database and will include bibliographic, chemical, crystal, 
#  experimental, refinement, and atomic coordinate data, as available.
#     
#  Copyright  2007  The Cambridge Crystallographic Data Centre
# 
#  This CIF is provided on the understanding that it is used for bona fide 
#  research purposes only.  It may contain copyright material of the CCDC
#  or of third parties, and may not be copied or further disseminated in 
#  any form, whether machine-readable or not, except for the purpose of 
#  generating routine backup copies on your local computer system.
# 
#  For further information about the CCDC, data deposition and data 
#  retrieval see <www.ccdc.cam.ac.uk>. Bona fide researchers may freely 
#  download  Mercury and enCIFer from this site to visualise CIF-encoded 
#  structures and to carry out CIF format checking respectively.
#
###########################################################################

data_CSD_CIF_HYQUIN05
_audit_creation_date 1982-07-05
_audit_creation_method CSD-ConQuest-V1
_database_code_CSD HYQUIN05
_chemical_formula_sum 'C6 H6 O2'
_symmetry_cell_setting rhombohedral
_symmetry_space_group_name_H-M 'R -3'
_symmetry_Int_Tables_number 148
loop_
_symmetry_equiv_pos_site_id
_symmetry_equiv_pos_as_xyz
1 x,y,z
2 1/3+x,2/3+y,2/3+z
3 2/3+x,1/3+y,1/3+z
4 -y,x-y,z
5 -x+y,-x,z
6 1/3-y,2/3+x-y,2/3+z
7 1/3-x+y,2/3-x,2/3+z
8 2/3-y,1/3+x-y,1/3+z
9 2/3-x+y,1/3-x,1/3+z
10 -x,-y,-z
11 -1/3-x,-2/3-y,-2/3-z
12 -2/3-x,-1/3-y,-1/3-z
13 y,-x+y,-z
14 x-y,x,-z
15 -1/3+y,-2/3-x+y,-2/3-z
16 -1/3+x-y,-2/3+x,-2/3-z
17 -2/3+y,-1/3-x+y,-1/3-z
18 -2/3+x-y,-1/3+x,-1/3-z
_cell_length_a 16.613(3)
_cell_length_b 16.613(3)
_cell_length_c 5.4746(5)
_cell_angle_alpha 90
_cell_angle_beta 90
_cell_angle_gamma 120
_cell_formula_units_Z 9
loop_
_atom_type_symbol
_atom_type_radius_bond
C 0.68
H 0.23
O 0.68
loop_
_atom_site_label
_atom_site_type_symbol
_atom_site_fract_x
_atom_site_fract_y
_atom_site_fract_z
O1 O 0.18590 0.09590 0.98880
C1 C 0.25900 0.13270 0.82640
C2 C 0.32860 0.11160 0.86080
C3 C 0.26360 0.18820 0.63200
H1 H 0.32400 0.07100 0.99900
H2 H 0.21700 0.20400 0.60000
H3 H 0.15500 0.11900 0.97500
C3J* C 0.40307 0.14513 0.70133
C2J* C 0.33807 0.22173 0.47253
C1J* C 0.40767 0.20063 0.50693
H2J* H 0.44967 0.12933 0.73333
H1J* H 0.34267 0.26233 0.33433
O1J* O 0.48077 0.23743 0.34453
H3J* H 0.51167 0.21433 0.35833
#END
