data_ETHANE01
_audit_creation_date 1978-10-27
_audit_creation_method CSD-QUEST3D-V5
_database_code_CSD ETHANE01
_chemical_formula_sum  'C2 H6'
_symmetry_cell_setting monoclinic
_symmetry_space_group_name_H-M  'P 21/n'
_ccdc_symmetry_space_group_name P21/n
_symmetry_Int_Tables_number 14
loop_
_symmetry_equiv_pos_site_id
_symmetry_equiv_pos_as_xyz
  1  x,y,z
  2  1/2-x,1/2+y,1/2-z
  3  -x,-y,-z
  4  -1/2+x,-1/2-y,-1/2+z
_cell_length_a 4.226(3)
_cell_length_b 5.623(4)
_cell_length_c 5.845(4)
_cell_angle_alpha 90
_cell_angle_beta 90.41(6)
_cell_angle_gamma 90
_cell_formula_units_Z 2
_ccdc_flag_disorder no
_ccdc_flag_error no
_ccdc_flag_match full
_ccdc_flag_sigma(C-C) 1
_ccdc_R_factor 5.20
loop_
_atom_type_symbol
_atom_type_radius_bond
C 0.68
H 0.23
loop_
_ccdc_atom_site_atom_id_number
_atom_site_label
_atom_site_type_symbol
_atom_site_fract_x
_atom_site_fract_y
_atom_site_fract_z
_ccdc_atom_site_symmetry
_ccdc_atom_site_base
1 C1 C -0.03890 0.09592 -0.08890 1_555 1
2 H1 H 0.06950 0.04900 -0.25250 1_555 2
3 H2 H 0.05600 0.26980 -0.03880 1_555 3
4 H3 H -0.29650 0.11140 -0.10520 1_555 4
5 C1B C 0.03890 -0.09592 0.08890 3_555 1
6 H1B H -0.06950 -0.04900 0.25250 3_555 2
7 H2B H -0.05600 -0.26980 0.03880 3_555 3
8 H3B H 0.29650 -0.11140 0.10520 3_555 4
loop_
_atom_id
_atom_type
_atom_attach_nh
_atom_attach_h
_atom_charge
1 C 1 3 0
5 C 1 3 0
loop_
_bond_id_1
_bond_id_2
_bond_type_ccdc
_bond_environment
1 2 S chain
3 1 S chain
4 1 S chain
5 1 S chain
6 5 S chain
7 5 S chain
8 5 S chain
data_JAYDUI
_audit_creation_date 1999-06-30
_audit_creation_method CSD-QUEST3D-V5
_database_code_CSD JAYDUI
_chemical_formula_sum  'C3 H8'
_symmetry_cell_setting monoclinic
_symmetry_space_group_name_H-M  'P 21/n'
_ccdc_symmetry_space_group_name P21/n
_symmetry_Int_Tables_number 14
loop_
_symmetry_equiv_pos_site_id
_symmetry_equiv_pos_as_xyz
  1  x,y,z
  2  1/2+x,1/2-y,1/2+z
  3  -x,-y,-z
  4  -1/2-x,-1/2+y,-1/2-z
_cell_length_a 4.1480(14)
_cell_length_b 12.612(5)
_cell_length_c 6.977(3)
_cell_angle_alpha 90
_cell_angle_beta 91.28(3)
_cell_angle_gamma 90
_cell_formula_units_Z 4
_ccdc_flag_disorder no
_ccdc_flag_error no
_ccdc_flag_match full
_ccdc_flag_sigma(C-C) 1
_ccdc_R_factor 4.68
loop_
_atom_type_symbol
_atom_type_radius_bond
C 0.68
H 0.23
loop_
_ccdc_atom_site_atom_id_number
_atom_site_label
_atom_site_type_symbol
_atom_site_fract_x
_atom_site_fract_y
_atom_site_fract_z
_ccdc_atom_site_symmetry
_ccdc_atom_site_base
1 C1 C 0.2173(3) 0.94825(7) 0.21996(14) 1_555 1
2 H1 H -0.0108(37) 0.9471(10) 0.1897(20) 1_555 2
3 H2 H 0.3276(32) 0.9275(10) 0.1059(18) 1_555 3
4 H3 H 0.2818(32) 1.0219(12) 0.2475(20) 1_555 4
5 C2 C 0.3085(2) 0.87541(7) 0.38809(13) 1_555 5
6 H4 H 0.1883(31) 0.8973(10) 0.5016(18) 1_555 6
7 H5 H 0.5360(36) 0.8830(10) 0.4198(18) 1_555 7
8 C3 C 0.2306(3) 0.75914(7) 0.34494(14) 1_555 8
9 H6 H 0.0068(39) 0.7484(10) 0.3207(20) 1_555 9
10 H7 H 0.3428(34) 0.7347(10) 0.2321(20) 1_555 10
11 H8 H 0.2990(35) 0.7128(12) 0.4529(21) 1_555 11
loop_
_atom_id
_atom_type
_atom_attach_nh
_atom_attach_h
_atom_charge
1 C 1 3 0
5 C 2 2 0
8 C 1 3 0
loop_
_bond_id_1
_bond_id_2
_bond_type_ccdc
_bond_environment
1 2 S chain
3 1 S chain
4 1 S chain
5 1 S chain
6 5 S chain
7 5 S chain
8 5 S chain
9 8 S chain
10 8 S chain
11 8 S chain
data_DUCKOB04
_audit_creation_date 1999-06-30
_audit_creation_method CSD-QUEST3D-V5
_database_code_CSD DUCKOB04
_chemical_formula_sum  'C4 H10'
_symmetry_cell_setting monoclinic
_symmetry_space_group_name_H-M  'P 21/c'
_ccdc_symmetry_space_group_name P21/c
_symmetry_Int_Tables_number 14
loop_
_symmetry_equiv_pos_site_id
_symmetry_equiv_pos_as_xyz
  1  x,y,z
  2  x,1/2-y,1/2+z
  3  -x,-y,-z
  4  -x,-1/2+y,-1/2-z
_cell_length_a 5.7027(15)
_cell_length_b 5.5247(15)
_cell_length_c 8.389(2)
_cell_angle_alpha 90
_cell_angle_beta 115.22(2)
_cell_angle_gamma 90
_cell_formula_units_Z 2
_ccdc_flag_disorder no
_ccdc_flag_error no
_ccdc_flag_match full
_ccdc_flag_sigma(C-C) 2
_ccdc_R_factor 19.22
loop_
_atom_type_symbol
_atom_type_radius_bond
C 0.68
H 0.23
loop_
_ccdc_atom_site_atom_id_number
_atom_site_label
_atom_site_type_symbol
_atom_site_fract_x
_atom_site_fract_y
_atom_site_fract_z
_ccdc_atom_site_symmetry
_ccdc_atom_site_base
1 C1 C 0.2256(6) 0.2358(5) 0.4422(4) 1_555 1
2 H1 H 0.1566(6) 0.3143(5) 0.5180(4) 1_555 2
3 H2 H 0.0869(6) 0.1453(5) 0.3489(4) 1_555 3
4 H3 H 0.2936(6) 0.3592(5) 0.3891(4) 1_555 4
5 C2 C 0.4417(8) 0.0635(8) 0.5513(4) 1_555 5
6 H4 H 0.5787(8) 0.1559(8) 0.6469(4) 1_555 6
7 H5 H 0.3722(8) -0.0578(8) 0.6067(4) 1_555 7
8 C2B C 0.5583 -0.0635 0.4487 3_656 5
9 C1B C 0.7744 -0.2358 0.5578 3_656 1
10 H1B H 0.8434 -0.3143 0.4820 3_656 2
11 H2B H 0.9131 -0.1453 0.6511 3_656 3
12 H3B H 0.7064 -0.3592 0.6109 3_656 4
13 H4B H 0.4213 -0.1559 0.3531 3_656 6
14 H5B H 0.6278 0.0578 0.3933 3_656 7
loop_
_atom_id
_atom_type
_atom_attach_nh
_atom_attach_h
_atom_charge
1 C 1 3 0
5 C 2 2 0
8 C 2 2 0
9 C 1 3 0
loop_
_bond_id_1
_bond_id_2
_bond_type_ccdc
_bond_environment
1 2 S chain
3 1 S chain
4 1 S chain
5 1 S chain
6 5 S chain
7 5 S chain
8 5 S chain
9 8 S chain
10 9 S chain
11 9 S chain
12 9 S chain
13 8 S chain
14 8 S chain
data_PENTAN01
_audit_creation_date 1999-06-30
_audit_creation_method CSD-QUEST3D-V5
_database_code_CSD PENTAN01
_chemical_formula_sum  'C5 H12'
_symmetry_cell_setting orthorhombic
_symmetry_space_group_name_H-M  'P b c n'
_ccdc_symmetry_space_group_name Pbcn
_symmetry_Int_Tables_number 60
loop_
_symmetry_equiv_pos_site_id
_symmetry_equiv_pos_as_xyz
  1  x,y,z
  2  1/2+x,1/2+y,1/2-z
  3  x,-y,1/2+z
  4  1/2-x,1/2+y,z
  5  -x,-y,-z
  6  -1/2-x,-1/2-y,-1/2+z
  7  -x,y,-1/2-z
  8  -1/2+x,-1/2-y,-z
_cell_length_a 4.1357(8)
_cell_length_b 9.025(3)
_cell_length_c 14.816(5)
_cell_angle_alpha 90
_cell_angle_beta 90
_cell_angle_gamma 90
_cell_formula_units_Z 4
_ccdc_flag_disorder no
_ccdc_flag_error no
_ccdc_flag_match full
_ccdc_flag_sigma(C-C) 1
_ccdc_R_factor 4.02
loop_
_atom_type_symbol
_atom_type_radius_bond
C 0.68
H 0.23
loop_
_ccdc_atom_site_atom_id_number
_atom_site_label
_atom_site_type_symbol
_atom_site_fract_x
_atom_site_fract_y
_atom_site_fract_z
_ccdc_atom_site_symmetry
_ccdc_atom_site_base
1 C1 C 0.1960(2) 0.36886(10) 0.08780(6) 1_555 1
2 H1 H 0.3917(31) 0.3118(15) 0.1019(9) 1_555 2
3 H2 H 0.0201(36) 0.3032(15) 0.0699(9) 1_555 3
4 H3 H 0.2552(34) 0.4300(15) 0.0368(9) 1_555 4
5 C2 C 0.0941(2) 0.46166(9) 0.16832(5) 1_555 5
6 H4 H 0.2762(33) 0.5289(14) 0.1850(8) 1_555 6
7 H5 H -0.0891(29) 0.5237(14) 0.1505(8) 1_555 7
8 C3 C 0.0000 0.36965(10) 0.2500 1_555 8
9 H6 H 0.1893(26) 0.3041(11) 0.2666(7) 1_555 9
10 C2F C -0.0941 0.46166 0.33168 7_556 5
11 C1F C -0.1960 0.36886 0.41220 7_556 1
12 H1F H -0.3917 0.3118 0.3981 7_556 2
13 H2F H -0.0201 0.3032 0.4301 7_556 3
14 H3F H -0.2552 0.4300 0.4632 7_556 4
15 H4F H -0.2762 0.5289 0.3150 7_556 6
16 H5F H 0.0891 0.5237 0.3495 7_556 7
17 H6F H -0.1893 0.3041 0.2334 7_556 9
loop_
_atom_id
_atom_type
_atom_attach_nh
_atom_attach_h
_atom_charge
1 C 1 3 0
5 C 2 2 0
8 C 2 2 0
10 C 2 2 0
11 C 1 3 0
loop_
_bond_id_1
_bond_id_2
_bond_type_ccdc
_bond_environment
1 2 S chain
3 1 S chain
4 1 S chain
5 1 S chain
6 5 S chain
7 5 S chain
8 5 S chain
9 8 S chain
10 8 S chain
11 10 S chain
12 11 S chain
13 11 S chain
14 11 S chain
15 10 S chain
16 10 S chain
17 8 S chain
data_HEXANE01
_audit_creation_date 1999-06-30
_audit_creation_method CSD-QUEST3D-V5
_database_code_CSD HEXANE01
_chemical_formula_sum  'C6 H14'
_symmetry_cell_setting triclinic
_symmetry_space_group_name_H-M  'P -1'
_ccdc_symmetry_space_group_name P-1
_symmetry_Int_Tables_number 2
loop_
_symmetry_equiv_pos_site_id
_symmetry_equiv_pos_as_xyz
  1  x,y,z
  2  -x,-y,-z
_cell_length_a 4.1309(7)
_cell_length_b 4.6963(10)
_cell_length_c 8.539(2)
_cell_angle_alpha 83.40(2)
_cell_angle_beta 87.265(15)
_cell_angle_gamma 75.172(15)
_cell_formula_units_Z 1
_ccdc_flag_disorder no
_ccdc_flag_error no
_ccdc_flag_match full
_ccdc_flag_sigma(C-C) 1
_ccdc_R_factor 3.42
loop_
_atom_type_symbol
_atom_type_radius_bond
C 0.68
H 0.23
loop_
_ccdc_atom_site_atom_id_number
_atom_site_label
_atom_site_type_symbol
_atom_site_fract_x
_atom_site_fract_y
_atom_site_fract_z
_ccdc_atom_site_symmetry
_ccdc_atom_site_base
1 C1 C 0.2233(2) 0.7314(2) 0.15263(8) 1_555 1
2 H1 H 0.0126(29) 0.8508(26) 0.1862(13) 1_555 2
3 H2 H 0.3647(28) 0.8679(25) 0.1227(13) 1_555 3
4 H3 H 0.1865(30) 0.6488(27) 0.0594(15) 1_555 4
5 C2 C 0.3719(2) 0.49288(15) 0.28366(7) 1_555 5
6 H4 H 0.2336(26) 0.3514(22) 0.3087(12) 1_555 6
7 H5 H 0.5798(25) 0.3748(22) 0.2470(12) 1_555 7
8 C3 C 0.4275(2) 0.61843(13) 0.43361(7) 1_555 8
9 H6 H 0.2201(26) 0.7372(23) 0.4703(12) 1_555 9
10 H7 H 0.5707(25) 0.7589(22) 0.4106(11) 1_555 10
11 C3A C 0.5725 0.38157 0.56639 2_666 8
12 C2A C 0.6281 0.50712 0.71634 2_666 5
13 C1A C 0.7767 0.2686 0.84737 2_666 1
14 H1A H 0.9874 0.1492 0.8138 2_666 2
15 H2A H 0.6353 0.1321 0.8773 2_666 3
16 H3A H 0.8135 0.3512 0.9406 2_666 4
17 H4A H 0.7664 0.6486 0.6913 2_666 6
18 H5A H 0.4202 0.6252 0.7530 2_666 7
19 H6A H 0.7799 0.2628 0.5297 2_666 9
20 H7A H 0.4293 0.2411 0.5894 2_666 10
loop_
_atom_id
_atom_type
_atom_attach_nh
_atom_attach_h
_atom_charge
1 C 1 3 0
5 C 2 2 0
8 C 2 2 0
11 C 2 2 0
12 C 2 2 0
13 C 1 3 0
loop_
_bond_id_1
_bond_id_2
_bond_type_ccdc
_bond_environment
1 2 S chain
3 1 S chain
4 1 S chain
5 1 S chain
6 5 S chain
7 5 S chain
8 5 S chain
9 8 S chain
10 8 S chain
11 8 S chain
12 11 S chain
13 12 S chain
14 13 S chain
15 13 S chain
16 13 S chain
17 12 S chain
18 12 S chain
19 11 S chain
20 11 S chain
data_HEPTAN02
_audit_creation_date 1999-06-30
_audit_creation_method CSD-QUEST3D-V5
_database_code_CSD HEPTAN02
_chemical_formula_sum  'C7 H16'
_symmetry_cell_setting triclinic
_symmetry_space_group_name_H-M  'P -1'
_ccdc_symmetry_space_group_name P-1
_symmetry_Int_Tables_number 2
loop_
_symmetry_equiv_pos_site_id
_symmetry_equiv_pos_as_xyz
  1  x,y,z
  2  -x,-y,-z
_cell_length_a 4.116(2)
_cell_length_b 4.686(3)
_cell_length_c 20.348(13)
_cell_angle_alpha 78.11(5)
_cell_angle_beta 81.79(5)
_cell_angle_gamma 74.25(4)
_cell_formula_units_Z 2
_ccdc_flag_disorder no
_ccdc_flag_error no
_ccdc_flag_match full
_ccdc_flag_sigma(C-C) 1
_ccdc_R_factor 7.02
loop_
_atom_type_symbol
_atom_type_radius_bond
C 0.68
H 0.23
loop_
_ccdc_atom_site_atom_id_number
_atom_site_label
_atom_site_type_symbol
_atom_site_fract_x
_atom_site_fract_y
_atom_site_fract_z
_ccdc_atom_site_symmetry
_ccdc_atom_site_base
1 C1 C 1.1603(7) 0.2930(6) 0.42798(11) 1_555 1
2 H1 H 0.9502(84) 0.4263(73) 0.4434(15) 1_555 2
3 H2 H 1.3090(79) 0.4367(68) 0.4187(14) 1_555 3
4 H3 H 1.2396(84) 0.1381(75) 0.4612(16) 1_555 4
5 C2 C 1.1284(6) 0.1756(5) 0.36564(10) 1_555 5
6 H4 H 0.9724(78) 0.0378(67) 0.3762(14) 1_555 6
7 H5 H 1.3396(68) 0.0426(57) 0.3512(12) 1_555 7
8 C3 C 1.0109(5) 0.4271(5) 0.30698(9) 1_555 8
9 H6 H 0.7928(71) 0.5584(60) 0.3223(13) 1_555 9
10 H7 H 1.1673(71) 0.5644(61) 0.2981(13) 1_555 10
11 C4 C 0.9777(5) 0.3145(5) 0.24399(9) 1_555 11
12 H8 H 0.8095(71) 0.1852(61) 0.2561(13) 1_555 12
13 H9 H 1.1865(73) 0.1831(62) 0.2281(13) 1_555 13
14 C5 C 0.8578(5) 0.5664(5) 0.18582(9) 1_555 14
15 H10 H 0.6464(70) 0.6909(59) 0.1996(12) 1_555 15
16 H11 H 1.0085(78) 0.6973(66) 0.1750(14) 1_555 16
17 C6 C 0.8260(6) 0.4559(5) 0.12243(9) 1_555 17
18 H12 H 0.6746(74) 0.3164(65) 0.1342(13) 1_555 18
19 H13 H 1.0342(72) 0.3250(61) 0.1063(13) 1_555 19
20 C7 C 0.7000(6) 0.7102(5) 0.06528(10) 1_555 20
21 H14 H 0.5050(65) 0.8287(54) 0.0785(11) 1_555 21
22 H15 H 0.8597(73) 0.8369(61) 0.0512(13) 1_555 22
23 H16 H 0.6987(70) 0.6290(60) 0.0248(13) 1_555 23
loop_
_atom_id
_atom_type
_atom_attach_nh
_atom_attach_h
_atom_charge
1 C 1 3 0
5 C 2 2 0
8 C 2 2 0
11 C 2 2 0
14 C 2 2 0
17 C 2 2 0
20 C 1 3 0
loop_
_bond_id_1
_bond_id_2
_bond_type_ccdc
_bond_environment
1 2 S chain
3 1 S chain
4 1 S chain
5 1 S chain
6 5 S chain
7 5 S chain
8 5 S chain
9 8 S chain
10 8 S chain
11 8 S chain
12 11 S chain
13 11 S chain
14 11 S chain
15 14 S chain
16 14 S chain
17 14 S chain
18 17 S chain
19 17 S chain
20 17 S chain
21 20 S chain
22 20 S chain
23 20 S chain
data_OCTANE01
_audit_creation_date 1999-06-30
_audit_creation_method CSD-QUEST3D-V5
_database_code_CSD OCTANE01
_chemical_formula_sum  'C8 H18'
_symmetry_cell_setting triclinic
_symmetry_space_group_name_H-M  'P -1'
_ccdc_symmetry_space_group_name P-1
_symmetry_Int_Tables_number 2
loop_
_symmetry_equiv_pos_site_id
_symmetry_equiv_pos_as_xyz
  1  x,y,z
  2  -x,-y,-z
_cell_length_a 4.1947(9)
_cell_length_b 4.7518(12)
_cell_length_c 10.998(3)
_cell_angle_alpha 85.11(2)
_cell_angle_beta 83.77(2)
_cell_angle_gamma 74.26(2)
_cell_formula_units_Z 1
_ccdc_flag_disorder no
_ccdc_flag_error no
_ccdc_flag_match full
_ccdc_flag_sigma(C-C) 1
_ccdc_R_factor 4.64
loop_
_atom_type_symbol
_atom_type_radius_bond
C 0.68
H 0.23
loop_
_ccdc_atom_site_atom_id_number
_atom_site_label
_atom_site_type_symbol
_atom_site_fract_x
_atom_site_fract_y
_atom_site_fract_z
_ccdc_atom_site_symmetry
_ccdc_atom_site_base
1 C1 C 0.1991(4) 0.7466(3) 0.12065(12) 1_555 1
2 C2 C 0.3266(4) 0.5208(3) 0.22224(10) 1_555 2
3 C3 C 0.3594(3) 0.6561(2) 0.33877(9) 1_555 3
4 C4 C 0.4836(3) 0.4321(2) 0.44169(9) 1_555 4
5 H1 H -0.0200(45) 0.8812(39) 0.1493(15) 1_555 5
6 H2 H 0.3457(46) 0.8701(39) 0.0977(16) 1_555 6
7 H3 H 0.1721(44) 0.6523(39) 0.0492(18) 1_555 7
8 H4 H 0.1794(38) 0.3946(32) 0.2406(13) 1_555 8
9 H5 H 0.5408(39) 0.3925(32) 0.1938(13) 1_555 9
10 H6 H 0.1440(38) 0.7911(33) 0.3681(13) 1_555 10
11 H7 H 0.5083(35) 0.7818(31) 0.3206(12) 1_555 11
12 H8 H 0.3346(36) 0.3083(32) 0.4592(13) 1_555 12
13 H9 H 0.6986(36) 0.2995(32) 0.4125(13) 1_555 13
14 C4A C 0.5164 0.5679 0.55831 2_666 4
15 C3A C 0.6406 0.3439 0.66123 2_666 3
16 C2A C 0.6734 0.4792 0.77776 2_666 2
17 C1A C 0.8009 0.2534 0.87935 2_666 1
18 H1A H 1.0200 0.1188 0.8507 2_666 5
19 H2A H 0.6543 0.1299 0.9023 2_666 6
20 H3A H 0.8279 0.3477 0.9508 2_666 7
21 H4A H 0.8206 0.6054 0.7594 2_666 8
22 H5A H 0.4592 0.6075 0.8062 2_666 9
23 H6A H 0.8560 0.2089 0.6319 2_666 10
24 H7A H 0.4917 0.2182 0.6794 2_666 11
25 H8A H 0.6654 0.6917 0.5408 2_666 12
26 H9A H 0.3014 0.7005 0.5875 2_666 13
loop_
_atom_id
_atom_type
_atom_attach_nh
_atom_attach_h
_atom_charge
1 C 1 3 0
2 C 2 2 0
3 C 2 2 0
4 C 2 2 0
14 C 2 2 0
15 C 2 2 0
16 C 2 2 0
17 C 1 3 0
loop_
_bond_id_1
_bond_id_2
_bond_type_ccdc
_bond_environment
1 2 S chain
2 3 S chain
3 4 S chain
4 12 S chain
5 1 S chain
6 1 S chain
7 1 S chain
8 2 S chain
9 2 S chain
10 3 S chain
11 3 S chain
13 4 S chain
14 4 S chain
15 14 S chain
16 15 S chain
17 16 S chain
18 17 S chain
19 17 S chain
20 17 S chain
21 16 S chain
22 16 S chain
23 15 S chain
24 15 S chain
25 14 S chain
26 14 S chain
data_QQQFAY01
_audit_creation_date 1999-06-30
_audit_creation_method CSD-QUEST3D-V5
_database_code_CSD QQQFAY01
_chemical_formula_sum  'C9 H20'
_symmetry_cell_setting triclinic
_symmetry_space_group_name_H-M  'P -1'
_ccdc_symmetry_space_group_name P-1
_symmetry_Int_Tables_number 2
loop_
_symmetry_equiv_pos_site_id
_symmetry_equiv_pos_as_xyz
  1  x,y,z
  2  -x,-y,-z
_cell_length_a 4.1180(12)
_cell_length_b 4.674(2)
_cell_length_c 24.693(9)
_cell_angle_alpha 86.27(3)
_cell_angle_beta 87.80(3)
_cell_angle_gamma 74.52(3)
_cell_formula_units_Z 2
_ccdc_flag_disorder no
_ccdc_flag_error no
_ccdc_flag_match full
_ccdc_flag_sigma(C-C) 1
_ccdc_R_factor 4.68
loop_
_atom_type_symbol
_atom_type_radius_bond
C 0.68
H 0.23
loop_
_ccdc_atom_site_atom_id_number
_atom_site_label
_atom_site_type_symbol
_atom_site_fract_x
_atom_site_fract_y
_atom_site_fract_z
_ccdc_atom_site_symmetry
_ccdc_atom_site_base
1 C1 C 0.6218(4) 0.7184(4) 0.05799(6) 1_555 1
2 H1 H 0.4069(49) 0.8613(42) 0.0455(8) 1_555 2
3 H2 H 0.7802(45) 0.8287(37) 0.0649(7) 1_555 3
4 H3 H 0.7147(46) 0.5934(40) 0.0292(8) 1_555 4
5 C2 C 0.5526(3) 0.5363(3) 0.10804(5) 1_555 5
6 H4 H 0.3951(41) 0.4175(33) 0.0999(7) 1_555 6
7 H5 H 0.7635(42) 0.3846(36) 0.1196(7) 1_555 7
8 C3 C 0.4059(3) 0.7260(3) 0.15541(5) 1_555 8
9 H6 H 0.1944(41) 0.8719(34) 0.1443(6) 1_555 9
10 H7 H 0.5636(40) 0.8423(33) 0.1632(6) 1_555 10
11 C4 C 0.3325(3) 0.5485(3) 0.20599(5) 1_555 11
12 H8 H 0.1751(38) 0.4275(31) 0.1977(6) 1_555 12
13 H9 H 0.5429(40) 0.4000(34) 0.2172(6) 1_555 13
14 C5 C 0.1866(3) 0.7405(3) 0.25310(5) 1_555 14
15 H10 H -0.0282(41) 0.8889(33) 0.2427(6) 1_555 15
16 H11 H 0.3460(41) 0.8574(34) 0.2610(7) 1_555 16
17 C6 C 0.1137(3) 0.5641(3) 0.30389(5) 1_555 17
18 H12 H -0.0430(40) 0.4439(33) 0.2951(6) 1_555 18
19 H13 H 0.3232(43) 0.4143(36) 0.3161(7) 1_555 19
20 C7 C -0.0353(3) 0.7570(3) 0.35067(5) 1_555 20
21 H14 H -0.2539(41) 0.9019(34) 0.3394(7) 1_555 21
22 H15 H 0.1193(38) 0.8764(32) 0.3586(6) 1_555 22
23 C8 C -0.1067(3) 0.5817(3) 0.40151(5) 1_555 23
24 H16 H -0.2586(39) 0.4601(33) 0.3929(7) 1_555 24
25 H17 H 0.1032(44) 0.4435(35) 0.4135(7) 1_555 25
26 C9 C -0.2621(4) 0.7779(3) 0.44752(6) 1_555 26
27 H18 H -0.4782(44) 0.9187(37) 0.4365(7) 1_555 27
28 H19 H -0.1193(44) 0.8977(36) 0.4582(7) 1_555 28
29 H20 H -0.3169(47) 0.6631(41) 0.4799(8) 1_555 29
loop_
_atom_id
_atom_type
_atom_attach_nh
_atom_attach_h
_atom_charge
1 C 1 3 0
5 C 2 2 0
8 C 2 2 0
11 C 2 2 0
14 C 2 2 0
17 C 2 2 0
20 C 2 2 0
23 C 2 2 0
26 C 1 3 0
loop_
_bond_id_1
_bond_id_2
_bond_type_ccdc
_bond_environment
1 2 S chain
3 1 S chain
4 1 S chain
5 1 S chain
6 5 S chain
7 5 S chain
8 5 S chain
9 8 S chain
10 8 S chain
11 8 S chain
12 11 S chain
13 11 S chain
14 11 S chain
15 14 S chain
16 14 S chain
17 14 S chain
18 17 S chain
19 17 S chain
20 17 S chain
21 20 S chain
22 20 S chain
23 20 S chain
24 23 S chain
25 23 S chain
26 23 S chain
27 26 S chain
28 26 S chain
29 26 S chain
data_ZZZOFC04
_audit_creation_date 1993-05-24
_audit_creation_method CSD-QUEST3D-V5
_database_code_CSD ZZZOFC04
_chemical_formula_sum  'C24 H50'
_symmetry_cell_setting triclinic
_symmetry_space_group_name_H-M  'P -1'
_ccdc_symmetry_space_group_name P-1
_symmetry_Int_Tables_number 2
loop_
_symmetry_equiv_pos_site_id
_symmetry_equiv_pos_as_xyz
  1  x,y,z
  2  -x,-y,-z
_cell_length_a 4.289(7)
_cell_length_b 4.82(1)
_cell_length_c 32.54(2)
_cell_angle_alpha 86.19(9)
_cell_angle_beta 68.55(8)
_cell_angle_gamma 72.2(2)
_cell_formula_units_Z 1
_ccdc_flag_disorder no
_ccdc_flag_error no
_ccdc_flag_match full
_ccdc_flag_sigma(C-C) none
_ccdc_R_factor 23.00
loop_
_atom_type_symbol
_atom_type_radius_bond
C 0.68
H 0.23
loop_
_ccdc_atom_site_atom_id_number
_atom_site_label
_atom_site_type_symbol
_atom_site_fract_x
_atom_site_fract_y
_atom_site_fract_z
_ccdc_atom_site_symmetry
_ccdc_atom_site_base
1 C1 C 0.907 0.715 0.453 1_555 1
2 C2 C 0.858 0.913 0.417 1_555 2
3 C3 C 0.929 0.749 0.374 1_555 3
4 C4 C 0.879 0.947 0.338 1_555 4
5 C5 C 0.950 0.783 0.295 1_555 5
6 C6 C 0.900 0.981 0.258 1_555 6
7 C7 C 0.971 0.816 0.216 1_555 7
8 C8 C 0.922 1.015 0.179 1_555 8
9 C9 C 0.993 0.850 0.137 1_555 9
10 C10 C 0.943 1.048 0.100 1_555 10
11 C11 C 1.014 0.884 0.058 1_555 11
12 C12 C 0.965 1.082 0.021 1_555 12
13 H1 H 1.155 0.584 0.443 1_555 13
14 H2 H 0.743 0.595 0.460 1_555 14
15 H3 H 0.861 0.823 0.481 1_555 15
16 H4 H 1.022 1.033 0.410 1_555 16
17 H5 H 0.610 1.045 0.427 1_555 17
18 H6 H 1.177 0.618 0.364 1_555 18
19 H7 H 0.764 0.629 0.381 1_555 19
20 H8 H 1.044 1.067 0.331 1_555 20
21 H9 H 0.631 1.078 0.348 1_555 21
22 H10 H 1.198 0.651 0.285 1_555 22
23 H11 H 0.786 0.663 0.302 1_555 23
24 H12 H 1.065 1.101 0.252 1_555 24
25 H13 H 0.652 1.112 0.269 1_555 25
26 H14 H 1.219 0.685 0.206 1_555 26
27 H15 H 0.807 0.696 0.223 1_555 27
28 H16 H 1.086 1.135 0.173 1_555 28
29 H17 H 0.674 1.146 0.190 1_555 29
30 H18 H 1.241 0.719 0.127 1_555 30
31 H19 H 0.828 0.730 0.144 1_555 31
32 H20 H 1.108 1.169 0.093 1_555 32
33 H21 H 0.696 1.180 0.111 1_555 33
34 H22 H 1.262 0.753 0.048 1_555 34
35 H23 H 0.850 0.764 0.065 1_555 35
36 H24 H 1.129 1.202 0.014 1_555 36
37 H25 H 0.717 1.214 0.032 1_555 37
38 C12A C 1.035 0.918 -0.021 2_775 12
39 C11A C 0.986 1.116 -0.058 2_775 11
40 H24A H 0.871 0.798 -0.014 2_775 36
41 H25A H 1.283 0.786 -0.032 2_775 37
42 C10A C 1.057 0.952 -0.100 2_775 10
43 H22A H 0.738 1.247 -0.048 2_775 34
44 H23A H 1.150 1.236 -0.065 2_775 35
45 C9A C 1.007 1.150 -0.137 2_775 9
46 H20A H 0.892 0.831 -0.093 2_775 32
47 H21A H 1.304 0.820 -0.111 2_775 33
48 C8A C 1.078 0.985 -0.179 2_775 8
49 H18A H 0.759 1.281 -0.127 2_775 30
50 H19A H 1.172 1.270 -0.144 2_775 31
51 C7A C 1.029 1.184 -0.216 2_775 7
52 H16A H 0.914 0.865 -0.173 2_775 28
53 H17A H 1.326 0.854 -0.190 2_775 29
54 C6A C 1.100 1.019 -0.258 2_775 6
55 H14A H 0.781 1.315 -0.206 2_775 26
56 H15A H 1.193 1.304 -0.223 2_775 27
57 C5A C 1.050 1.217 -0.295 2_775 5
58 H12A H 0.935 0.899 -0.252 2_775 24
59 H13A H 1.348 0.888 -0.269 2_775 25
60 C4A C 1.121 1.053 -0.338 2_775 4
61 H10A H 0.802 1.349 -0.285 2_775 22
62 H11A H 1.214 1.337 -0.302 2_775 23
63 C3A C 1.071 1.251 -0.374 2_775 3
64 H8A H 0.956 0.933 -0.331 2_775 20
65 H9A H 1.369 0.922 -0.348 2_775 21
66 C2A C 1.142 1.087 -0.417 2_775 2
67 H6A H 0.823 1.382 -0.364 2_775 18
68 H7A H 1.236 1.371 -0.381 2_775 19
69 C1A C 1.093 1.285 -0.453 2_775 1
70 H4A H 0.978 0.967 -0.410 2_775 16
71 H5A H 1.390 0.955 -0.427 2_775 17
72 H1A H 0.845 1.416 -0.443 2_775 13
73 H2A H 1.257 1.405 -0.460 2_775 14
74 H3A H 1.139 1.177 -0.481 2_775 15
loop_
_atom_id
_atom_type
_atom_attach_nh
_atom_attach_h
_atom_charge
1 C 1 3 0
2 C 2 2 0
3 C 2 2 0
4 C 2 2 0
5 C 2 2 0
6 C 2 2 0
7 C 2 2 0
8 C 2 2 0
9 C 2 2 0
10 C 2 2 0
11 C 2 2 0
12 C 2 2 0
38 C 2 2 0
39 C 2 2 0
42 C 2 2 0
45 C 2 2 0
48 C 2 2 0
51 C 2 2 0
54 C 2 2 0
57 C 2 2 0
60 C 2 2 0
63 C 2 2 0
66 C 2 2 0
69 C 1 3 0
loop_
_bond_id_1
_bond_id_2
_bond_type_ccdc
_bond_environment
1 2 S chain
2 3 S chain
3 4 S chain
4 5 S chain
5 6 S chain
6 7 S chain
7 8 S chain
8 9 S chain
9 10 S chain
10 11 S chain
11 12 S chain
12 36 S chain
13 1 S chain
14 1 S chain
15 1 S chain
16 2 S chain
17 2 S chain
18 3 S chain
19 3 S chain
20 4 S chain
21 4 S chain
22 5 S chain
23 5 S chain
24 6 S chain
25 6 S chain
26 7 S chain
27 7 S chain
28 8 S chain
29 8 S chain
30 9 S chain
31 9 S chain
32 10 S chain
33 10 S chain
34 11 S chain
35 11 S chain
37 12 S chain
38 12 S chain
39 38 S chain
40 38 S chain
41 38 S chain
42 39 S chain
43 39 S chain
44 39 S chain
45 42 S chain
46 42 S chain
47 42 S chain
48 45 S chain
49 45 S chain
50 45 S chain
51 48 S chain
52 48 S chain
53 48 S chain
54 51 S chain
55 51 S chain
56 51 S chain
57 54 S chain
58 54 S chain
59 54 S chain
60 57 S chain
61 57 S chain
62 57 S chain
63 60 S chain
64 60 S chain
65 60 S chain
66 63 S chain
67 63 S chain
68 63 S chain
69 66 S chain
70 66 S chain
71 66 S chain
72 69 S chain
73 69 S chain
74 69 S chain
